comp_1_C
     RDKit          3D

  5  4  0  0  0  0  0  0  0  0999 V2000
    1.9314    0.0201    0.0034 I   0  0  0  0  0  0  0  0  0  0  0  0
   -0.2058    0.0070    0.0159 C   0  0  0  0  0  0  0  0  0  0  0  0
   -0.5772   -0.1099    1.0452 H   0  0  0  0  0  0  0  0  0  0  0  0
   -0.6082    0.9292   -0.4468 H   0  0  0  0  0  0  0  0  0  0  0  0
   -0.5402   -0.8464   -0.6176 H   0  0  0  0  0  0  0  0  0  0  0  0
  1  2  1  0
  2  3  1  0
  2  4  1  0
  2  5  1  0
M  END
$$$$
